13
S0
C         29.01960       18.02850        0.00000
Cr        30.10470       19.60690        0.00000
C         31.18980       21.18530        0.00000
C         30.10470       19.60690        1.91540
C         30.10470       19.60690       -1.91540
C         28.52630       20.69200        0.00000
C         31.68310       18.52180        0.00000
O         28.36830       17.08110        0.00000
O         31.84120       22.13260        0.00000
O         30.10470       19.60690        3.06500
O         30.10470       19.60690       -3.06500
O         27.57900       21.34340        0.00000
O         32.63040       17.87050        0.00000