11

C          3.11950        3.37870        0.18830
C          3.83380        2.18130        0.16190
C          1.72720        3.32550        0.13040
C          3.12040        0.98410        0.07870
C          1.11320        2.07430        0.04870
N          1.78420        0.91570        0.02240
H          3.63670        4.33260        0.25270
H          4.91900        2.17100        0.20460
H          1.12720        4.23060        0.14790
H          3.64750        0.03120        0.05600
H          0.02780        1.99730        0.00200
